
  ACD/Labs08211722403D

 20 21  0  0  0  0  0  0  0  0  1 V2000
   19.2362   -6.8497   -0.0023 C   0  0  0  0  0  0  0  0  0  0  0  0
   19.1163   -8.0254   -0.6169 C   0  0  0  0  0  0  0  0  0  0  0  0
   18.1903   -6.3044    0.6147 C   0  0  0  0  0  0  0  0  0  0  0  0
   17.9491   -8.6593   -0.6105 C   0  0  0  0  0  0  0  0  0  0  0  0
   17.0206   -6.9374    0.6195 C   0  0  0  0  0  0  0  0  0  0  0  0
   16.9055   -8.1121    0.0069 N   0  0  0  0  0  0  0  0  0  0  0  0
   20.4865   -6.1752   -0.0049 C   0  0  0  0  0  0  0  0  0  0  0  0
   20.5988   -4.9890   -0.5993 C   0  0  0  0  0  0  0  0  0  0  0  0
   21.5418   -6.7326    0.5855 C   0  0  0  0  0  0  0  0  0  0  0  0
   21.7692   -4.3592   -0.6053 C   0  0  0  0  0  0  0  0  0  0  0  0
   22.7124   -6.1035    0.5807 C   0  0  0  0  0  0  0  0  0  0  0  0
   22.8212   -4.9193   -0.0145 N   0  0  0  0  0  0  0  0  0  0  0  0
   19.9569   -8.4588   -1.1125 H   0  0  0  0  0  0  0  0  0  0  0  0
   18.2925   -5.3616    1.1031 H   0  0  0  0  0  0  0  0  0  0  0  0
   17.8480   -9.6024   -1.1006 H   0  0  0  0  0  0  0  0  0  0  0  0
   16.1772   -6.5061    1.1125 H   0  0  0  0  0  0  0  0  0  0  0  0
   19.7488   -4.5454   -1.0708 H   0  0  0  0  0  0  0  0  0  0  0  0
   21.4475   -7.6816    1.0619 H   0  0  0  0  0  0  0  0  0  0  0  0
   21.8651   -3.4091   -1.0826 H   0  0  0  0  0  0  0  0  0  0  0  0
   23.5626   -6.5468    1.0516 H   0  0  0  0  0  0  0  0  0  0  0  0
  2  1  1  0  0  0  0
  3  1  2  0  0  0  0
  7  1  1  0  0  0  0
  4  2  2  0  0  0  0
 13  2  1  0  0  0  0
  5  3  1  0  0  0  0
 14  3  1  0  0  0  0
  6  4  1  0  0  0  0
 15  4  1  0  0  0  0
  6  5  2  0  0  0  0
 16  5  1  0  0  0  0
  8  7  1  0  0  0  0
  9  7  2  0  0  0  0
 10  8  2  0  0  0  0
 17  8  1  0  0  0  0
 11  9  1  0  0  0  0
 18  9  1  0  0  0  0
 12 10  1  0  0  0  0
 19 10  1  0  0  0  0
 12 11  2  0  0  0  0
 20 11  1  0  0  0  0
M  END
